
 File 'ocean.in'.  Input file for MOMA model. 
 ****    version for free surface MOM-A code 
 ****    2 day test run.   


 &contrl
     init=.true.,        fnrest=' ',
     days = 2.0,        restrt=.true.,
     nmix=  12,          eb=.true.,      ncon=1,
     tsi   = 0.0416666,  dgnstc= 2.00,   snaps =1.0
 &end
 &eddy
      am    = 1.0e9,   ah    = 2.0e7,
      fkph  = 20.0,    fkpm  = 1.0,    cdbot = 0.001
 &end
 &tsteps
     dtts=3600.0,      dtuv=3600.0,    dtbt = 100.0
 &end

